LAMMPS (15 Sep 2022)
# 3d WCA system, random initial configuration

#variable density equal 0.5
variable initial_temperature equal 3.0
variable final_temperature equal 0.1
variable dt equal 0.01
variable tau equal 100*0.01
variable thermo_time equal 50000*0.01
variable equil_steps equal 50000
variable run_steps equal 100000

units           lj
atom_style      atomic
dimension       3

lattice         fcc 0.8
Lattice spacing in x,y,z = 1.7099759 1.7099759 1.7099759
region          box prism 0 8 0 8 0 8 0 -0.5 0.5
# number of atom types
create_box      1 box
Created triclinic box = (0 0 0) to (13.679808 13.679808 13.679808) with tilt (0 -0.85498797 0.85498797)
create_atoms    1 box
Created 2048 atoms
mass 1 1.0

velocity all create 3 12345

pair_style      lj/cut 1.0
#type_1 type_2 epsilon sigma cutoff
pair_coeff      1 1 10.0 0.89089871814 1.0
pair_modify shift yes

timestep 0.01
thermo 500

fix 1 all nvt temp 3 3 1
run 50000
Generated 0 of 0 mixed pair_coeff terms from geometric mixing rule
Step          Temp          E_pair         E_mol          TotEng         Press
0   3              0              0              4.4978027      2.3988281
Averages over the last 51 of 101 rows, steps 25000 to 50000:
Temp E_pair E_mol TotEng Press
3.01757 0.977935 0 5.50208 12.3309
Loop time of 5.12403 on 8 procs for 50000 steps with 2048 atoms

unfix 1
dump           1 all atom 100000 3dWCA_T0.1_d0.8_N100000.lammpstrj
dump           2 all dcd 500 3dWCA_T0.1_d0.8_N100000.dcd
fix 1 all nvt temp 3 0.1 1

run 100000
Generated 0 of 0 mixed pair_coeff terms from geometric mixing rule
Step          Temp          E_pair         E_mol          TotEng         Press
50000   3.0282586      0.92678874     0              5.4669586      11.946105
Averages over the last 101 of 201 rows, steps 100000 to 150000:
Temp E_pair E_mol TotEng Press
0.825074 0.214691 0 1.4517 3.91805
Loop time of 8.27066 on 8 procs for 100000 steps with 2048 atoms
